2
9
.tran 1.1n 1.1u 0
5
1
3.3V
V
1
Net-(C6-Pad1)
V
1
Net-(Q6-Pad1)
V
1
led_out
V
1
led_pin
V
2
.dc V2 3 7 0.01
0
